Referencia/OpenDSS/Examples/InverterModels/PVSystem2/InvControl2/MonitoredVoltage/Mon_voltage_MAX_Mix_avg_VVDRC_sec9_VLN_Node.Txt

LINE-GROUND and LINE-LINE VOLTAGES BY BUS & NODE

Bus  Node    VLN (kV)   Angle      pu     Base kV    Node-Node   VLL (kV)  Angle      pu

A .. 1       8.2847 /_    8.3    1.0398    13.800        1-2     14.352 /_   38.4      1.04
   - 2       8.2917 /_ -111.6    1.0407    13.800        2-3     14.354 /_  -81.6    1.0402
   - 3       8.2864 /_  128.4      1.04    13.800        3-1     14.357 /_  158.4    1.0404
B .. 1       8.3481 /_   11.1    1.0478    13.800        1-2     14.419 /_   40.8    1.0449
   - 2       8.2832 /_ -109.2    1.0396    13.800        2-3     14.306 /_  -79.1    1.0367
   - 3       8.2603 /_  131.1    1.0368    13.800        3-1     14.388 /_  161.3    1.0426
C .. 1      0.29125 /_   11.1     1.051     0.480        1-2    0.50306 /_   40.9     1.048
   - 2        0.289 /_ -109.1    1.0428     0.480        2-3    0.49915 /_  -79.0    1.0399
   - 3       0.2882 /_  131.2      1.04     0.480        3-1    0.50199 /_  161.3    1.0458
